@<TRIPOS>MOLECULE
HETD
 77 81 0 0 0
SMALL
GASTEIGER

@<TRIPOS>ATOM
      1 P          -6.0308    4.0614    6.9154 P.3     1  UNL1        0.2182
      2 O          -5.8360    2.5858    7.1735 O.2     1  UNL1       -0.5170
      3 O          -5.6380    4.6764    5.5866 O.co2   1  UNL1       -0.4371
      4 O          -7.6331    4.3446    7.0632 O.3     1  UNL1       -0.3246
      5 C          -8.2170    3.8310    8.2471 C.3     1  UNL1        0.0836
      6 C          -9.7241    3.8255    8.0999 C.3     1  UNL1        0.1133
      7 O         -10.1776    2.7219    7.2866 O.3     1  UNL1       -0.3456
      8 C         -10.4377    3.6297    9.4137 C.3     1  UNL1        0.1142
      9 O         -10.3627    4.7485   10.2587 O.3     1  UNL1       -0.3864
     10 C         -11.8298    3.2509    8.9633 C.3     1  UNL1        0.1391
     11 O         -12.5159    4.3440    8.3523 O.3     1  UNL1       -0.3170
     12 C         -11.4632    2.3279    7.8041 C.3     1  UNL1        0.1671
     13 N         -11.4139    0.9248    8.1626 N.ar    1  UNL1       -0.2891
     14 C         -10.2846    0.1451    8.2787 C.ar    1  UNL1        0.0998
     15 N         -10.5771   -1.1435    8.3860 N.ar    1  UNL1       -0.2351
     16 C         -11.9431   -1.1925    8.3509 C.ar    1  UNL1        0.1197
     17 C         -12.8408   -2.3720    8.2863 C.3     1  UNL1        0.1456
     18 N         -12.3847   -3.4914    9.0828 N.3     1  UNL1       -0.3044
     19 N         -14.2898   -2.0549    8.3965 N.2     1  UNL1       -0.2514
     20 C         -14.5975   -0.7977    8.3065 C.2     1  UNL1        0.0833
     21 N         -13.7829    0.3223    8.1709 N.pl3   1  UNL1       -0.2904
     22 C         -12.4622    0.0692    8.2397 C.ar    1  UNL1        0.1322
     23 O          -5.5199    4.9722    8.1278 O.3     1  UNL1       -0.2703
     24 P          -4.0816    5.1482    8.8014 P.3     1  UNL1        0.2182
     25 O          -3.7424    3.9994    9.7223 O.2     1  UNL1       -0.5170
     26 O          -3.9776    6.5608    9.3587 O.co2   1  UNL1       -0.4371
     27 O          -3.0911    5.0926    7.5174 O.3     1  UNL1       -0.3246
     28 C          -3.0111    6.3046    6.7894 C.3     1  UNL1        0.0836
     29 C          -1.5891    6.8389    6.9289 C.3     1  UNL1        0.1131
     30 O          -0.6512    5.9517    6.2709 O.3     1  UNL1       -0.3476
     31 C          -1.4602    8.1943    6.2472 C.3     1  UNL1        0.1133
     32 O          -0.3720    8.9039    6.8481 O.3     1  UNL1       -0.3864
     33 C          -1.0774    7.7859    4.8425 C.3     1  UNL1        0.1265
     34 O          -0.4026    8.8217    4.1392 O.3     1  UNL1       -0.3849
     35 C          -0.1604    6.6179    5.1139 C.3     1  UNL1        0.1574
     36 N          -0.0124    5.7199    3.9790 N.pl3   1  UNL1       -0.2846
     37 C           1.2611    5.3673    3.5616 C.2     1  UNL1        0.0071
     38 C           1.4898    4.4114    2.6468 C.2     1  UNL1        0.0318
     39 C           2.8527    4.0643    2.1946 C.2     1  UNL1        0.2390
     40 O           3.0478    3.2093    1.3336 O.2     1  UNL1       -0.2707
     41 N           3.8573    4.7813    2.7973 N.am    1  UNL1       -0.3256
     42 C           0.3525    3.6437    2.0398 C.3     1  UNL1       -0.0019
     43 C          -0.9955    4.0675    2.5429 C.2     1  UNL1       -0.0654
     44 C          -1.1076    5.0320    3.4683 C.2     1  UNL1       -0.0049
     45 P         -13.8156    4.9358    9.1174 P.3     1  UNL1        0.2104
     46 O         -14.6518    5.6858    8.1099 O.2     1  UNL1       -0.5173
     47 O         -14.5747    3.5305    9.4647 O.3     1  UNL1       -0.3436
     48 O         -13.3653    5.5812   10.3999 O.co2   1  UNL1       -0.4374
     49 H          -7.8607    2.8043    8.4171 H       1  UNL1        0.0591
     50 H          -7.9325    4.4618    9.1022 H       1  UNL1        0.0591
     51 H          -9.9527    4.8048    7.6541 H       1  UNL1        0.0647
     52 H          -9.9890    2.8604   10.0594 H       1  UNL1        0.0648
     53 H         -10.3827    4.4510   11.2027 H       1  UNL1        0.2100
     54 H         -12.4575    2.8715    9.7831 H       1  UNL1        0.0673
     55 H         -12.2595    2.4326    7.0525 H       1  UNL1        0.0867
     56 H          -9.2598    0.5448    8.2820 H       1  UNL1        0.1030
     57 H         -12.7571   -2.7359    7.2517 H       1  UNL1        0.0779
     58 H         -12.4781   -3.2621   10.0826 H       1  UNL1        0.1205
     59 H         -12.9545   -4.3216    8.8662 H       1  UNL1        0.1205
     60 H         -15.6756   -0.5825    8.3434 H       1  UNL1        0.0997
     61 H         -14.1604    1.2701    8.0291 H       1  UNL1        0.1544
     62 H          -3.7266    7.0339    7.1969 H       1  UNL1        0.0591
     63 H          -3.2554    6.1338    5.7305 H       1  UNL1        0.0591
     64 H          -1.3724    6.9172    8.0045 H       1  UNL1        0.0647
     65 H          -2.3536    8.8334    6.3063 H       1  UNL1        0.0647
     66 H          -0.4494    8.8535    7.8338 H       1  UNL1        0.2100
     67 H          -1.9409    7.5518    4.2025 H       1  UNL1        0.0663
     68 H           0.0059    9.4488    4.7872 H       1  UNL1        0.2101
     69 H           0.8591    6.9918    5.2895 H       1  UNL1        0.0840
     70 H           2.1224    5.8936    3.9988 H       1  UNL1        0.0788
     71 H           4.8397    4.6053    2.5428 H       1  UNL1        0.1452
     72 H           3.6283    5.4949    3.5039 H       1  UNL1        0.1452
     73 H           0.4903    2.5772    2.2712 H       1  UNL1        0.0358
     74 H           0.3700    3.8432    0.9582 H       1  UNL1        0.0358
     75 H          -1.9009    3.5826    2.1491 H       1  UNL1        0.0588
     76 H          -2.1103    5.2902    3.8396 H       1  UNL1        0.0781
     77 H         -14.6337    3.4213   10.4469 H       1  UNL1        0.2176
@<TRIPOS>UNITY_ATOM_ATTR
3 1
charge -1
26 1
charge -1
48 1
charge -1
@<TRIPOS>BOND
     1     1     4    1
     2     1     2    2
     3     1    23    1
     4     1     3    1
     5     4     5    1
     6     6     5    1
     7     6     8    1
     8     7    12    1
     9     7     6    1
    10     8    10    1
    11     8     9    1
    12    10    12    1
    13    11    10    1
    14    11    45    1
    15    12    13    1
    16    13    22   ar
    17    13    14   ar
    18    14    15   ar
    19    16    15   ar
    20    16    17    1
    21    17    18    1
    22    19    17    1
    23    20    19    2
    24    21    20    1
    25    21    22    1
    26    22    16   ar
    27    23    24    1
    28    24    25    2
    29    24    26    1
    30    27    24    1
    31    28    29    1
    32    28    27    1
    33    29    31    1
    34    30    29    1
    35    31    33    1
    36    31    32    1
    37    33    35    1
    38    34    33    1
    39    35    30    1
    40    35    36    1
    41    37    36    1
    42    38    37    2
    43    39    41   am
    44    39    38    1
    45    40    39    2
    46    42    43    1
    47    42    38    1
    48    43    44    2
    49    44    36    1
    50    45    47    1
    51    45    48    1
    52    46    45    2
    53     5    49    1
    54     5    50    1
    55     6    51    1
    56     8    52    1
    57     9    53    1
    58    10    54    1
    59    12    55    1
    60    14    56    1
    61    17    57    1
    62    18    58    1
    63    18    59    1
    64    20    60    1
    65    21    61    1
    66    28    62    1
    67    28    63    1
    68    29    64    1
    69    31    65    1
    70    32    66    1
    71    33    67    1
    72    34    68    1
    73    35    69    1
    74    37    70    1
    75    41    71    1
    76    41    72    1
    77    42    73    1
    78    42    74    1
    79    43    75    1
    80    44    76    1
    81    47    77    1
