HETD
 OpenBabel06062517143D

 77 81  0  0  1  0  0  0  0  0999 V2000
  -13.7710    0.2800    7.8830 N   0  0  0  0  0  0  0  0  0  0  0  0
  -12.4660    0.0690    8.1350 C   0  0  0  0  0  0  0  0  0  0  0  0
  -14.1410    1.2000    7.6040 H   0  0  0  0  0  0  0  0  0  0  0  0
  -14.5820   -0.8400    8.0270 C   0  0  0  0  0  0  0  0  0  0  0  0
  -15.6410   -0.6790    7.7740 H   0  0  0  0  0  0  0  0  0  0  0  0
  -14.2910   -2.0460    8.4110 N   0  0  0  0  0  0  0  0  0  0  0  0
  -12.8860   -2.2540    8.8540 C   0  0  1  0  0  0  0  0  0  0  0  0
  -12.3290   -3.5580    8.5630 N   0  0  0  0  0  0  0  0  0  0  0  0
  -12.1200   -4.0460    9.4450 H   0  0  0  0  0  0  0  0  0  0  0  0
  -13.0080   -4.1080    8.0190 H   0  0  0  0  0  0  0  0  0  0  0  0
  -12.9860   -2.2460    9.9500 H   0  0  0  0  0  0  0  0  0  0  0  0
  -11.9630   -1.1310    8.5560 C   0  0  0  0  0  0  0  0  0  0  0  0
  -10.6070   -1.0440    8.7350 N   0  0  0  0  0  0  0  0  0  0  0  0
  -10.3130    0.2130    8.4280 C   0  0  0  0  0  0  0  0  0  0  0  0
   -9.2940    0.6260    8.4440 H   0  0  0  0  0  0  0  0  0  0  0  0
  -11.4310    0.9400    8.0870 N   0  0  0  0  0  0  0  0  0  0  0  0
  -11.4900    2.3470    7.7370 C   0  0  1  0  0  0  0  0  0  0  0  0
  -11.8190    3.2400    8.9310 C   0  0  1  0  0  0  0  0  0  0  0  0
  -10.4240    3.5890    9.3930 C   0  0  2  0  0  0  0  0  0  0  0  0
  -10.3570    4.7130   10.2420 O   0  0  0  0  0  0  0  0  0  0  0  0
  -10.3750    4.4150   11.1860 H   0  0  0  0  0  0  0  0  0  0  0  0
   -9.9750    2.8090   10.0250 H   0  0  0  0  0  0  0  0  0  0  0  0
  -12.4760    4.3940    8.4030 O   0  0  0  0  0  0  0  0  0  0  0  0
  -13.8840    4.7620    9.1130 P   0  0  1  0  0  0  0  0  0  0  0  0
  -14.6420    5.6960    8.2020 O   0  0  0  0  0  0  0  0  0  0  0  0
  -14.4850    3.4580    9.5910 O   0  0  0  0  0  0  0  0  0  0  0  0
  -13.3210    5.6100   10.3840 O   0  0  0  0  0  0  0  0  0  0  0  0
  -13.6090    5.1750   11.2260 H   0  0  0  0  0  0  0  0  0  0  0  0
  -12.4550    2.8160    9.7220 H   0  0  0  0  0  0  0  0  0  0  0  0
  -12.2890    2.4720    6.9920 H   0  0  0  0  0  0  0  0  0  0  0  0
  -10.1970    2.7410    7.2280 O   0  0  0  0  0  0  0  0  0  0  0  0
   -9.7170    3.8050    8.0780 C   0  0  2  0  0  0  0  0  0  0  0  0
   -9.9330    4.7990    7.6590 H   0  0  0  0  0  0  0  0  0  0  0  0
   -8.2110    3.7770    8.2210 C   0  0  0  0  0  0  0  0  0  0  0  0
   -7.8710    2.7380    8.3350 H   0  0  0  0  0  0  0  0  0  0  0  0
   -7.9120    4.3550    9.1080 H   0  0  0  0  0  0  0  0  0  0  0  0
   -7.6280    4.3430    7.0620 O   0  0  0  0  0  0  0  0  0  0  0  0
   -6.0240    4.0750    6.9100 P   0  0  1  0  0  0  0  0  0  0  0  0
   -5.8140    2.6010    7.1620 O   0  0  0  0  0  0  0  0  0  0  0  0
   -5.6410    4.7020    5.5850 O   0  0  0  0  0  0  0  0  0  0  0  0
   -5.5230    4.9870    8.1270 O   0  0  0  0  0  0  0  0  0  0  0  0
   -4.0870    5.1650    8.8050 P   0  0  2  0  0  0  0  0  0  0  0  0
   -3.7540    4.0200    9.7330 O   0  0  0  0  0  0  0  0  0  0  0  0
   -3.9860    6.5800    9.3570 O   0  0  0  0  0  0  0  0  0  0  0  0
   -3.0910    5.1040    7.5260 O   0  0  0  0  0  0  0  0  0  0  0  0
   -3.0080    6.3120    6.7920 C   0  0  0  0  0  0  0  0  0  0  0  0
   -3.7220    7.0450    7.1960 H   0  0  0  0  0  0  0  0  0  0  0  0
   -3.2530    6.1360    5.7340 H   0  0  0  0  0  0  0  0  0  0  0  0
   -1.5850    6.8440    6.9280 C   0  0  2  0  0  0  0  0  0  0  0  0
   -1.4550    8.1970    6.2440 C   0  0  1  0  0  0  0  0  0  0  0  0
   -0.3650    8.9060    6.8420 O   0  0  0  0  0  0  0  0  0  0  0  0
   -0.4410    8.8570    7.8280 H   0  0  0  0  0  0  0  0  0  0  0  0
   -1.0740    7.7850    4.8400 C   0  0  1  0  0  0  0  0  0  0  0  0
   -0.3980    8.8190    4.1340 O   0  0  0  0  0  0  0  0  0  0  0  0
    0.0120    9.4460    4.7800 H   0  0  0  0  0  0  0  0  0  0  0  0
   -1.9380    7.5520    4.2010 H   0  0  0  0  0  0  0  0  0  0  0  0
   -2.3470    8.8380    6.3020 H   0  0  0  0  0  0  0  0  0  0  0  0
   -1.3670    6.9240    8.0040 H   0  0  0  0  0  0  0  0  0  0  0  0
   -0.6500    5.9530    6.2710 O   0  0  0  0  0  0  0  0  0  0  0  0
   -0.1590    6.6160    5.1120 C   0  0  1  0  0  0  0  0  0  0  0  0
    0.8610    6.9870    5.2850 H   0  0  0  0  0  0  0  0  0  0  0  0
   -0.0160    5.7150    3.9790 N   0  0  0  0  0  0  0  0  0  0  0  0
    1.2560    5.3580    3.5600 C   0  0  0  0  0  0  0  0  0  0  0  0
    2.1190    5.8830    3.9940 H   0  0  0  0  0  0  0  0  0  0  0  0
    1.4800    4.4000    2.6460 C   0  0  0  0  0  0  0  0  0  0  0  0
    2.8410    4.0490    2.1920 C   0  0  0  0  0  0  0  0  0  0  0  0
    3.0330    3.1930    1.3310 O   0  0  0  0  0  0  0  0  0  0  0  0
    3.8490    4.7640    2.7920 N   0  0  0  0  0  0  0  0  0  0  0  0
    4.8300    4.5850    2.5360 H   0  0  0  0  0  0  0  0  0  0  0  0
    3.6230    5.4790    3.4980 H   0  0  0  0  0  0  0  0  0  0  0  0
    0.3400    3.6350    2.0420 C   0  0  0  0  0  0  0  0  0  0  0  0
    0.4750    2.5680    2.2750 H   0  0  0  0  0  0  0  0  0  0  0  0
    0.3560    3.8320    0.9600 H   0  0  0  0  0  0  0  0  0  0  0  0
   -1.0060    4.0630    2.5470 C   0  0  0  0  0  0  0  0  0  0  0  0
   -1.9140    3.5800    2.1560 H   0  0  0  0  0  0  0  0  0  0  0  0
   -1.1140    5.0290    3.4710 C   0  0  0  0  0  0  0  0  0  0  0  0
   -2.1150    5.2910    3.8440 H   0  0  0  0  0  0  0  0  0  0  0  0
  1  4  1  0  0  0  0
  1  2  1  0  0  0  0
  2 12  2  0  0  0  0
  3  1  1  0  0  0  0
  4  6  2  0  0  0  0
  5  4  1  0  0  0  0
  6  7  1  0  0  0  0
  7 11  1  1  0  0  0
  8  7  1  0  0  0  0
  8  9  1  0  0  0  0
 10  8  1  0  0  0  0
 12 13  1  0  0  0  0
 12  7  1  0  0  0  0
 14 15  1  0  0  0  0
 14 13  2  0  0  0  0
 16  2  1  0  0  0  0
 16 14  1  0  0  0  0
 17 30  1  6  0  0  0
 17 16  1  0  0  0  0
 17 18  1  0  0  0  0
 18 19  1  0  0  0  0
 18 29  1  1  0  0  0
 19 22  1  1  0  0  0
 19 20  1  0  0  0  0
 20 21  1  0  0  0  0
 23 18  1  0  0  0  0
 23 24  1  0  0  0  0
 24 25  2  6  0  0  0
 24 26  1  0  0  0  0
 24 27  1  0  0  0  0
 27 28  1  0  0  0  0
 31 17  1  0  0  0  0
 31 32  1  0  0  0  0
 32 33  1  6  0  0  0
 32 34  1  0  0  0  0
 32 19  1  0  0  0  0
 34 35  1  0  0  0  0
 34 36  1  0  0  0  0
 37 34  1  0  0  0  0
 38 40  2  6  0  0  0
 38 37  1  0  0  0  0
 38 39  1  0  0  0  0
 38 41  1  0  0  0  0
 41 42  1  0  0  0  0
 42 44  2  1  0  0  0
 42 43  1  0  0  0  0
 45 42  1  0  0  0  0
 46 49  1  0  0  0  0
 46 47  1  0  0  0  0
 46 45  1  0  0  0  0
 48 46  1  0  0  0  0
 49 58  1  1  0  0  0
 50 57  1  1  0  0  0
 50 51  1  0  0  0  0
 50 49  1  0  0  0  0
 51 52  1  0  0  0  0
 53 56  1  6  0  0  0
 53 60  1  0  0  0  0
 53 50  1  0  0  0  0
 54 55  1  0  0  0  0
 54 53  1  0  0  0  0
 59 49  1  0  0  0  0
 60 61  1  1  0  0  0
 60 59  1  0  0  0  0
 62 60  1  0  0  0  0
 63 62  1  0  0  0  0
 63 64  1  0  0  0  0
 65 63  2  0  0  0  0
 66 65  1  0  0  0  0
 66 68  1  0  0  0  0
 67 66  2  0  0  0  0
 68 70  1  0  0  0  0
 69 68  1  0  0  0  0
 71 72  1  0  0  0  0
 71 74  1  0  0  0  0
 71 65  1  0  0  0  0
 73 71  1  0  0  0  0
 74 76  2  0  0  0  0
 75 74  1  0  0  0  0
 76 77  1  0  0  0  0
 76 62  1  0  0  0  0
M  END
